CRYSTAL
PRIMVEC
   5.2917721   0.0000000   0.0000000
   0.0000000   5.2917721   0.0000000
   0.0000000   0.0000000   5.2917721
CONVVEC
   5.2917721   0.0000000   0.0000000
   0.0000000   5.2917721   0.0000000
   0.0000000   0.0000000   5.2917721
PRIMCOORD
     1  1
Mn      0.0000000   0.0000000   0.0000000
